[TITLE]
;;Project Title/Notes
test

[OPTIONS]
;;Option             Value
FLOW_UNITS           LPS
INFILTRATION         HORTON
FLOW_ROUTING         DYNWAVE
LINK_OFFSETS         DEPTH
MIN_SLOPE            0
ALLOW_PONDING        NO
SKIP_STEADY_STATE    NO

START_DATE           05/10/2019
START_TIME           00:00:00
REPORT_START_DATE    05/18/2019
REPORT_START_TIME    00:00:00
END_DATE             05/29/2019
END_TIME             00:00:00
SWEEP_START          01/01
SWEEP_END            12/31
DRY_DAYS             0
REPORT_STEP          00:10:00
WET_STEP             00:10:00
DRY_STEP             00:10:00
ROUTING_STEP         0:00:05 
RULE_STEP            00:00:00

INERTIAL_DAMPING     PARTIAL
NORMAL_FLOW_LIMITED  BOTH
FORCE_MAIN_EQUATION  H-W
VARIABLE_STEP        0.75
LENGTHENING_STEP     0
MIN_SURFAREA         12.566
MAX_TRIALS           8
HEAD_TOLERANCE       0.005
SYS_FLOW_TOL         5
LAT_FLOW_TOL         5
MINIMUM_STEP         0.5
THREADS              1

[EVAPORATION]
;;Data Source    Parameters
;;-------------- ----------------
CONSTANT         0.0
DRY_ONLY         NO

[RAINGAGES]
;;Name           Format    Interval SCF      Source    
;;-------------- --------- ------ ------ ----------
RG1              INTENSITY 0:10     1.0      TIMESERIES OPAD_V_2019     

[SUBCATCHMENTS]
;;Name           Rain Gage        Outlet           Area     %Imperv  Width    %Slope   CurbLen  SnowPack        
;;-------------- ---------------- ---------------- -------- -------- -------- -------- -------- ----------------
zl_0             RG1              Pkt2             3.018    40.0     260.598  4.605    0.0                      
zl_1             RG1              Pkt6             0.011    10.0     16.010   18.738   0.0                      
zl_2             RG1              Pkt6             0.005    10.0     10.148   0.000    0.0                      
zl_3             RG1              Pkt1             0.004    40.0     9.171    16.357   0.0                      
zl_4             RG1              Pkt2             0.014    80.0     17.953   16.710   0.0                      
zl_5             RG1              Pkt1             24.832   40.0     747.473  3.010    0.0                      
zl_6             RG1              Pkt2             16.000   80.0     600.008  3.250    0.0                      
zl_7             RG1              Pkt1             3.018    40.0     260.598  4.605    0.0                      
zl_8             RG1              Pkt1             24.832   40.0     747.474  3.010    0.0                      
zl_9             RG1              Pkt1             0.000    40.0     0.532    0.000    0.0                      
zl_10            RG1              Pkt1             0.004    40.0     9.171    16.357   0.0                      
zl_11            RG1              Pkt1             16.000   80.0     600.008  3.250    0.0                      
zl_12            RG1              Pkt2             0.014    80.0     17.953   16.710   0.0                      
zl_13            RG1              Pkt6             0.011    10.0     16.010   18.738   0.0                      
zl_14            RG1              Pkt6             0.005    10.0     10.148   0.000    0.0                      
zl_15            RG1              Pkt2             36.677   40.0     908.419  2.312    0.0                      
zl_16            RG1              Pkt1             14.615   40.0     573.452  1.831    0.0                      
zl_17            RG1              Pkt2             5.784    40.0     360.762  3.742    0.0                      
zl_18            RG1              Pkt1             0.002    40.0     6.707    0.000    0.0                      
zl_19            RG1              Pkt1             0.016    40.0     18.972   7.907    0.0                      
zl_20            RG1              Pkt2             1.451    40.0     180.711  3.320    0.0                      
zl_21            RG1              Pkt2             15.258   25.0     585.923  2.048    0.0                      
zl_22            RG1              Pkt2             0.023    80.0     22.733   26.394   0.0                      
zl_23            RG1              Pkt2             0.274    80.0     78.460   7.647    0.0                      
zl_24            RG1              Pkt2             10.281   80.0     480.960  3.431    0.0                      
zl_25            RG1              Pkt2             0.000    80.0     1.953    0.000    0.0                      
zl_26            RG1              Pkt2             20.679   5.0      682.106  3.079    0.0                      
zl_27            RG1              Pkt2             0.003    5.0      8.370    17.921   0.0                      
zl_28            RG1              Pkt2             0.000    5.0      2.754    0.000    0.0                      
zl_29            RG1              Pkt2             0.004    5.0      9.731    15.415   0.0                      
zl_30            RG1              Pkt3             106.068  40.0     1544.840 3.301    0.0                      
zl_31            RG1              Pkt2             0.001    40.0     5.213    57.544   0.0                      
zl_32            RG1              Pkt2             0.045    40.0     31.833   4.712    0.0                      
zl_33            RG1              Pkt2             0.038    40.0     29.198   10.275   0.0                      
zl_34            RG1              Pkt3             47.395   40.0     1032.661 1.307    0.0                      
zl_35            RG1              Pkt3             131.233  40.0     1718.355 4.015    0.0                      
zl_36            RG1              Pkt3             2.261    40.0     225.536  9.311    0.0                      
zl_37            RG1              Pkt3             6.819    25.0     391.701  3.447    0.0                      
zl_38            RG1              Pkt3             56.895   80.0     1131.427 1.856    0.0                      
zl_39            RG1              Pkt3             103.573  1.0      1526.559 5.601    0.0                      
zl_40            RG1              Pkt3             0.052    1.0      34.242   17.522   0.0                      
zl_41            RG1              Pkt3             4.144    1.0      305.362  10.316   0.0                      
zl_42            RG1              Pkt3             31.777   10.0     845.563  1.951    0.0                      
zl_43            RG1              Pkt3             68.741   10.0     1243.648 5.669    0.0                      
zl_44            RG1              Pkt3             2.927    10.0     256.619  6.430    0.0                      
zl_45            RG1              Pkt3             52.342   10.0     1085.212 4.976    0.0                      
zl_46            RG1              Pkt3             2.607    5.0      242.215  2.477    0.0                      
zl_47            RG1              Pkt3             136.159  5.0      1750.305 1.371    0.0                      
zl_48            RG1              Pkt3             0.077    5.0      41.651   7.203    0.0                      
zl_49            RG1              Pkt3             0.045    5.0      31.955   4.694    0.0                      
zl_50            RG1              Pkt3             0.006    5.0      11.662   12.862   0.0                      
zl_51            RG1              Pkt3             39.334   30.0     940.750  4.465    0.0                      
zl_52            RG1              Pkt3             0.016    30.0     18.880   7.945    0.0                      
zl_53            RG1              Pkt3             15.329   30.0     587.277  3.831    0.0                      
zl_54            RG1              Pkt3             48.456   30.0     1044.153 3.304    0.0                      
zl_55            RG1              pkt3             0.024    30.0     23.002   13.042   0.0                      
zl_56            RG1              Pkt3             0.879    30.0     140.642  1.067    0.0                      
zl_57            RG1              Pkt4             3.530    40.0     281.811  7.984    0.0                      
zl_58            RG1              Pkt4             7.147    40.0     401.013  8.229    0.0                      
zl_59            RG1              Pkt4             1.822    10.0     202.457  2.964    0.0                      
zl_60            RG1              Pkt4             63.998   40.0     1199.980 6.875    0.0                      
zl_61            RG1              Pkt4             31.561   1.0      842.682  10.680   0.0                      
zl_62            RG1              Pkt4             52.571   10.0     1087.590 6.758    0.0                      
zl_63            RG1              Pkt4             0.019    10.0     20.540   21.909   0.0                      
zl_64            RG1              Pkt4             208.874  10.0     2167.873 4.152    0.0                      
zl_65            RG1              Pkt4             0.000    10.0     0.361    0.000    0.0                      
zl_66            RG1              Pkt4             1.505    10.0     183.993  4.076    0.0                      
zl_67            RG1              Pkt4             4.577    30.0     320.912  6.544    0.0                      
zl_68            RG1              Pkt5             7.218    40.0     402.985  11.167   0.0                      
zl_69            RG1              Pkt6             0.000    40.0     3.314    0.000    0.0                      
zl_70            RG1              Pkt5             4.923    40.0     332.813  8.113    0.0                      
zl_71            RG1              Pkt5             1.265    40.0     168.691  14.227   0.0                      
zl_72            RG1              Pkt5             113.892  10.0     1600.804 5.060    0.0                      
zl_73            RG1              Pkt6             13.711   40.0     555.426  8.642    0.0                      
zl_74            RG1              Pkt6             0.025    40.0     23.920   12.542   0.0                      
zl_75            RG1              Pkt6             0.521    40.0     108.240  16.630   0.0                      
zl_76            RG1              Pkt6             41.890   40.0     970.833  13.442   0.0                      
zl_77            RG1              Pkt6             0.751    10.0     129.971  6.925    0.0                      
zl_78            RG1              Pkt6             165.860  10.0     1931.800 6.911    0.0                      
zl_79            RG1              Pkt6             0.797    10.0     133.883  6.722    0.0                      

[SUBAREAS]
;;Subcatchment   N-Imperv   N-Perv     S-Imperv   S-Perv     PctZero    RouteTo    PctRouted 
;;-------------- ---------- ---------- ---------- ---------- ---------- ---------- ----------
zl_0             0.01       0.1        0.05       0.05       25.0       OUTLET    
zl_1             0.01       0.1        0.05       0.05       25.0       OUTLET    
zl_2             0.01       0.1        0.05       0.05       25.0       OUTLET    
zl_3             0.01       0.1        0.05       0.05       25.0       OUTLET    
zl_4             0.01       0.1        0.05       0.05       25.0       OUTLET    
zl_5             0.01       0.1        0.05       0.05       25.0       OUTLET    
zl_6             0.01       0.1        0.05       0.05       25.0       OUTLET    
zl_7             0.01       0.1        0.05       0.05       25.0       OUTLET    
zl_8             0.01       0.1        0.05       0.05       25.0       OUTLET    
zl_9             0.01       0.1        0.05       0.05       25.0       OUTLET    
zl_10            0.01       0.1        0.05       0.05       25.0       OUTLET    
zl_11            0.01       0.1        0.05       0.05       25.0       OUTLET    
zl_12            0.01       0.1        0.05       0.05       25.0       OUTLET    
zl_13            0.01       0.1        0.05       0.05       25.0       OUTLET    
zl_14            0.01       0.1        0.05       0.05       25.0       OUTLET    
zl_15            0.01       0.1        0.05       0.05       25.0       OUTLET    
zl_16            0.01       0.1        0.05       0.05       25.0       OUTLET    
zl_17            0.01       0.1        0.05       0.05       25.0       OUTLET    
zl_18            0.01       0.1        0.05       0.05       25.0       OUTLET    
zl_19            0.01       0.1        0.05       0.05       25.0       OUTLET    
zl_20            0.01       0.1        0.05       0.05       25.0       OUTLET    
zl_21            0.01       0.1        0.05       0.05       25.0       OUTLET    
zl_22            0.01       0.1        0.05       0.05       25.0       OUTLET    
zl_23            0.01       0.1        0.05       0.05       25.0       OUTLET    
zl_24            0.01       0.1        0.05       0.05       25.0       OUTLET    
zl_25            0.01       0.1        0.05       0.05       25.0       OUTLET    
zl_26            0.01       0.1        0.05       0.05       25.0       OUTLET    
zl_27            0.01       0.1        0.05       0.05       25.0       OUTLET    
zl_28            0.01       0.1        0.05       0.05       25.0       OUTLET    
zl_29            0.01       0.1        0.05       0.05       25.0       OUTLET    
zl_30            0.01       0.1        0.05       0.05       25.0       OUTLET    
zl_31            0.01       0.1        0.05       0.05       25.0       OUTLET    
zl_32            0.01       0.1        0.05       0.05       25.0       OUTLET    
zl_33            0.01       0.1        0.05       0.05       25.0       OUTLET    
zl_34            0.01       0.1        0.05       0.05       25.0       OUTLET    
zl_35            0.01       0.1        0.05       0.05       25.0       OUTLET    
zl_36            0.01       0.1        0.05       0.05       25.0       OUTLET    
zl_37            0.01       0.1        0.05       0.05       25.0       OUTLET    
zl_38            0.01       0.1        0.05       0.05       25.0       OUTLET    
zl_39            0.01       0.1        0.05       0.05       25.0       OUTLET    
zl_40            0.01       0.1        0.05       0.05       25.0       OUTLET    
zl_41            0.01       0.1        0.05       0.05       25.0       OUTLET    
zl_42            0.01       0.1        0.05       0.05       25.0       OUTLET    
zl_43            0.01       0.1        0.05       0.05       25.0       OUTLET    
zl_44            0.01       0.1        0.05       0.05       25.0       OUTLET    
zl_45            0.01       0.1        0.05       0.05       25.0       OUTLET    
zl_46            0.01       0.1        0.05       0.05       25.0       OUTLET    
zl_47            0.01       0.1        0.05       0.05       25.0       OUTLET    
zl_48            0.01       0.1        0.05       0.05       25.0       OUTLET    
zl_49            0.01       0.1        0.05       0.05       25.0       OUTLET    
zl_50            0.01       0.1        0.05       0.05       25.0       OUTLET    
zl_51            0.01       0.1        0.05       0.05       25.0       OUTLET    
zl_52            0.01       0.1        0.05       0.05       25.0       OUTLET    
zl_53            0.01       0.1        0.05       0.05       25.0       OUTLET    
zl_54            0.01       0.1        0.05       0.05       25.0       OUTLET    
zl_55            0.01       0.1        0.05       0.05       25.0       OUTLET    
zl_56            0.01       0.1        0.05       0.05       25.0       OUTLET    
zl_57            0.01       0.1        0.05       0.05       25.0       OUTLET    
zl_58            0.01       0.1        0.05       0.05       25.0       OUTLET    
zl_59            0.01       0.1        0.05       0.05       25.0       OUTLET    
zl_60            0.01       0.1        0.05       0.05       25.0       OUTLET    
zl_61            0.01       0.1        0.05       0.05       25.0       OUTLET    
zl_62            0.01       0.1        0.05       0.05       25.0       OUTLET    
zl_63            0.01       0.1        0.05       0.05       25.0       OUTLET    
zl_64            0.01       0.1        0.05       0.05       25.0       OUTLET    
zl_65            0.01       0.1        0.05       0.05       25.0       OUTLET    
zl_66            0.01       0.1        0.05       0.05       25.0       OUTLET    
zl_67            0.01       0.1        0.05       0.05       25.0       OUTLET    
zl_68            0.01       0.1        0.05       0.05       25.0       OUTLET    
zl_69            0.01       0.1        0.05       0.05       25.0       OUTLET    
zl_70            0.01       0.1        0.05       0.05       25.0       OUTLET    
zl_71            0.01       0.1        0.05       0.05       25.0       OUTLET    
zl_72            0.01       0.1        0.05       0.05       25.0       OUTLET    
zl_73            0.01       0.1        0.05       0.05       25.0       OUTLET    
zl_74            0.01       0.1        0.05       0.05       25.0       OUTLET    
zl_75            0.01       0.1        0.05       0.05       25.0       OUTLET    
zl_76            0.01       0.1        0.05       0.05       25.0       OUTLET    
zl_77            0.01       0.1        0.05       0.05       25.0       OUTLET    
zl_78            0.01       0.1        0.05       0.05       25.0       OUTLET    
zl_79            0.01       0.1        0.05       0.05       25.0       OUTLET    

[INFILTRATION]
;;Subcatchment   Param1     Param2     Param3     Param4     Param5    
;;-------------- ---------- ---------- ---------- ---------- ----------
zl_0             3.0        0.5        4.0        7.0        0.0       
zl_1             3.0        0.5        4.0        7.0        0.0       
zl_2             3.0        0.5        4.0        7.0        0.0       
zl_3             3.0        0.5        4.0        7.0        0.0       
zl_4             3.0        0.5        4.0        7.0        0.0       
zl_5             3.0        0.5        4.0        7.0        0.0       
zl_6             3.0        0.5        4.0        7.0        0.0       
zl_7             3.0        0.5        4.0        7.0        0.0       
zl_8             3.0        0.5        4.0        7.0        0.0       
zl_9             3.0        0.5        4.0        7.0        0.0       
zl_10            3.0        0.5        4.0        7.0        0.0       
zl_11            3.0        0.5        4.0        7.0        0.0       
zl_12            3.0        0.5        4.0        7.0        0.0       
zl_13            3.0        0.5        4.0        7.0        0.0       
zl_14            3.0        0.5        4.0        7.0        0.0       
zl_15            3.0        0.5        4.0        7.0        0.0       
zl_16            3.0        0.5        4.0        7.0        0.0       
zl_17            3.0        0.5        4.0        7.0        0.0       
zl_18            3.0        0.5        4.0        7.0        0.0       
zl_19            3.0        0.5        4.0        7.0        0.0       
zl_20            3.0        0.5        4.0        7.0        0.0       
zl_21            3.0        0.5        4.0        7.0        0.0       
zl_22            3.0        0.5        4.0        7.0        0.0       
zl_23            3.0        0.5        4.0        7.0        0.0       
zl_24            3.0        0.5        4.0        7.0        0.0       
zl_25            3.0        0.5        4.0        7.0        0.0       
zl_26            3.0        0.5        4.0        7.0        0.0       
zl_27            3.0        0.5        4.0        7.0        0.0       
zl_28            3.0        0.5        4.0        7.0        0.0       
zl_29            3.0        0.5        4.0        7.0        0.0       
zl_30            3.0        0.5        4.0        7.0        0.0       
zl_31            3.0        0.5        4.0        7.0        0.0       
zl_32            3.0        0.5        4.0        7.0        0.0       
zl_33            3.0        0.5        4.0        7.0        0.0       
zl_34            3.0        0.5        4.0        7.0        0.0       
zl_35            3.0        0.5        4.0        7.0        0.0       
zl_36            3.0        0.5        4.0        7.0        0.0       
zl_37            3.0        0.5        4.0        7.0        0.0       
zl_38            3.0        0.5        4.0        7.0        0.0       
zl_39            3.0        0.5        4.0        7.0        0.0       
zl_40            3.0        0.5        4.0        7.0        0.0       
zl_41            3.0        0.5        4.0        7.0        0.0       
zl_42            3.0        0.5        4.0        7.0        0.0       
zl_43            3.0        0.5        4.0        7.0        0.0       
zl_44            3.0        0.5        4.0        7.0        0.0       
zl_45            3.0        0.5        4.0        7.0        0.0       
zl_46            3.0        0.5        4.0        7.0        0.0       
zl_47            3.0        0.5        4.0        7.0        0.0       
zl_48            3.0        0.5        4.0        7.0        0.0       
zl_49            3.0        0.5        4.0        7.0        0.0       
zl_50            3.0        0.5        4.0        7.0        0.0       
zl_51            3.0        0.5        4.0        7.0        0.0       
zl_52            3.0        0.5        4.0        7.0        0.0       
zl_53            3.0        0.5        4.0        7.0        0.0       
zl_54            3.0        0.5        4.0        7.0        0.0       
zl_55            3.0        0.5        4.0        7.0        0.0       
zl_56            3.0        0.5        4.0        7.0        0.0       
zl_57            3.0        0.5        4.0        7.0        0.0       
zl_58            3.0        0.5        4.0        7.0        0.0       
zl_59            3.0        0.5        4.0        7.0        0.0       
zl_60            3.0        0.5        4.0        7.0        0.0       
zl_61            3.0        0.5        4.0        7.0        0.0       
zl_62            3.0        0.5        4.0        7.0        0.0       
zl_63            3.0        0.5        4.0        7.0        0.0       
zl_64            3.0        0.5        4.0        7.0        0.0       
zl_65            3.0        0.5        4.0        7.0        0.0       
zl_66            3.0        0.5        4.0        7.0        0.0       
zl_67            3.0        0.5        4.0        7.0        0.0       
zl_68            3.0        0.5        4.0        7.0        0.0       
zl_69            3.0        0.5        4.0        7.0        0.0       
zl_70            3.0        0.5        4.0        7.0        0.0       
zl_71            3.0        0.5        4.0        7.0        0.0       
zl_72            3.0        0.5        4.0        7.0        0.0       
zl_73            3.0        0.5        4.0        7.0        0.0       
zl_74            3.0        0.5        4.0        7.0        0.0       
zl_75            3.0        0.5        4.0        7.0        0.0       
zl_76            3.0        0.5        4.0        7.0        0.0       
zl_77            3.0        0.5        4.0        7.0        0.0       
zl_78            3.0        0.5        4.0        7.0        0.0       
zl_79            3.0        0.5        4.0        7.0        0.0       

[JUNCTIONS]
;;Name           Elevation  MaxDepth   InitDepth  SurDepth   Aponded   
;;-------------- ---------- ---------- ---------- ---------- ----------
Pkt5             252.419    1.0        0.0        0.0        0.0       
Pkt6             278.351    1.0        0.0        0.0        0.0       
Pkt4             233.790    1.0        0.0        0.0        0.0       
Pkt3             222.850    1.0        0.0        0.0        0.0       
Pkt2             220.870    1.0        0.0        0.0        0.0       
Pkt7             281.765    1.0        0.0        0.0        0.0       

[OUTFALLS]
;;Name           Elevation  Type       Stage Data       Gated    Route To        
;;-------------- ---------- ---------- ---------------- -------- ----------------
Pkt1             216.080    FREE                        NO                       

[CONDUITS]
;;Name           From Node        To Node          Length     Roughness  InOffset   OutOffset  InitFlow   MaxFlow   
;;-------------- ---------------- ---------------- ---------- ---------- ---------- ---------- ---------- ----------
odc5             Pkt6             Pkt5             1757.153423 0.01       0.0        0.0        0.0        0.0       
odc4             Pkt5             Pkt4             1807.115220 0.01       0.0        0.0        0.0        0.0       
odc2             Pkt3             Pkt2             1160.283356 0.01       0.0        0.0        0.0        0.0       
odc6             Pkt7             Pkt6             115.573574 0.01       0.0        0.0        0.0        0.0       
odc3             Pkt4             Pkt3             2680.974117 0.01       0.0        0.0        0.0        0.0       
odc1             Pkt2             Pkt1             1463.567417 0.1        0.0        0.0        0.0        0.0       

[XSECTIONS]
;;Link           Shape        Geom1            Geom2      Geom3      Geom4      Barrels    Culvert   
;;-------------- ------------ ---------------- ---------- ---------- ---------- ---------- ----------
odc5             IRREGULAR    ODC5            
odc4             IRREGULAR    ODC4            
odc2             IRREGULAR    ODC2            
odc6             IRREGULAR    ODC6            
odc3             IRREGULAR    ODC3            
odc1             IRREGULAR    ODC1            

[TRANSECTS]
;;Transect Data in HEC-2 format
;
NC 0.01     0.01     0.01    
X1 ODC5              13       3        10       0.0      0.0      0.0      0.0      0.0     
GR 253.7    1        253.2    2        252.9    3        252.6    4        252.2    5       
GR 251.9    6        251.9    7        252.2    8        252.5    9        252.7    10      
GR 252.7    11       252.7    12       252.6    13      
;
NC 0.01     0.01     0.01    
X1 ODC4              8        1        8        0.0      0.0      0.0      0.0      0.0     
GR 233.55   0        233.45   1        232.33   3        232.18   4        232.08   6       
GR 232.41   7        233.37   8        233.62   9       
;
NC 0.01     0.01     0.01    
X1 ODC3              7        1        6        0.0      0.0      0.0      0.0      0.0     
GR 221.25   0        220.65   2        220.03   4        220.13   5        221.15   6       
GR 221.37   7        221.84   9       
;
NC 0.01     0.01     0.01    
X1 ODC2              7        0        16       0.0      0.0      0.0      0.0      0.0     
GR 221.44   0        219      5        217.92   7        217.61   10       219.01   14      
GR 219.44   16       221.47   19      
;
NC 0.01     0.01     0.1     
X1 ODC1              20       5        17       0.0      0.0      0.0      0.0      0.0     
GR 216.4    0        216.3    1        216.3    2        216.1    3        216.0    4       
GR 215.9    5        215.5    6        215.1    7        214.8    8        214.6    9       
GR 214.2    10       213.9    11       213.4    12       213.4    13       213.8    14      
GR 213.9    15       214.5    16       215.1    17       215.5    18       215.5    19      
;
NC 0.01     0.01     0.01    
X1 ODC6              6        1        6        0.0      0.0      0.0      0.0      0.0     
GR 278.4    1        278.1    2        277.7    3        277.9    4        278.3    5       
GR 278.9    6       

[LOSSES]
;;Link           Kentry     Kexit      Kavg       Flap Gate  Seepage   
;;-------------- ---------- ---------- ---------- ---------- ----------
odc5             0.0        0.0        0.0        NO         0.0       
odc4             0.0        0.0        0.0        NO         0.0       
odc2             0.0        0.0        0.0        NO         0.0       
odc6             0.0        0.0        0.0        NO         0.0       
odc3             0.0        0.0        0.0        NO         0.0       
odc1             0.0        0.0        0.0        NO         0.0       

[INFLOWS]
;;Node           Constituent      Time Series      Type     Mfactor  Sfactor  Baseline Pattern
;;-------------- ---------------- ---------------- -------- -------- -------- -------- --------
Pkt5             FLOW             ""               FLOW     1.0      1.0      6.8238  
Pkt6             FLOW             ""               FLOW     1.0      1.0      2.2629  
Pkt4             FLOW             ""               FLOW     1.0      1.0      15.058  
Pkt3             FLOW             ""               FLOW     1.0      1.0      128.455 
Pkt2             FLOW             ""               FLOW     1.0      1.0      54.5922 
Pkt7             FLOW             ""               FLOW     1.0      1.0      3.9759  
Pkt1             FLOW             ""               FLOW     1.0      1.0      7.5619  

[TIMESERIES]
;;Name           Date       Time       Value     
;;-------------- ---------- ---------- ----------
DESZCZ0          11/27/2024 00:00      0         
;
OPAD_V_2019      5/18/2019  21:10:00   0.2       
OPAD_V_2019      5/18/2019  21:20:00   0.2       
OPAD_V_2019      5/18/2019  21:30:00   0.2       
OPAD_V_2019      5/19/2019  14:00:00   1.6       
OPAD_V_2019      5/19/2019  14:10:00   7         
OPAD_V_2019      5/19/2019  14:20:00   0.2       
OPAD_V_2019      5/19/2019  14:30:00   0.4       
OPAD_V_2019      5/19/2019  17:30:00   3         
OPAD_V_2019      5/19/2019  17:40:00   7.4       